Version 4
SHEET 1 880 680
WIRE -448 -160 -448 -224
WIRE -304 -160 -304 -224
WIRE -176 -160 -176 -224
WIRE -32 -160 -32 -224
WIRE -448 -48 -448 -80
WIRE -304 -48 -304 -80
WIRE -176 -48 -176 -80
WIRE -32 -48 -32 -80
WIRE 0 112 -240 112
WIRE 176 128 160 128
WIRE 0 144 -64 144
WIRE 160 160 160 128
WIRE 160 160 128 160
WIRE 368 160 288 160
WIRE -240 176 -240 112
WIRE -352 192 -480 192
WIRE -288 192 -352 192
WIRE -288 240 -320 240
WIRE 592 256 544 256
WIRE -240 272 -240 256
WIRE -80 272 -240 272
WIRE 544 272 544 256
WIRE 544 272 480 272
WIRE -480 320 -480 192
WIRE -240 336 -240 272
WIRE -352 352 -352 192
WIRE -288 352 -352 352
WIRE -320 400 -320 240
WIRE -288 400 -320 400
WIRE -320 432 -320 400
WIRE -480 480 -480 400
WIRE -240 512 -240 416
WIRE -64 512 -64 144
WIRE -64 512 -240 512
FLAG -480 480 0
FLAG -320 432 0
FLAG 704 -112 0
FLAG 816 -112 0
FLAG 704 -192 v+
FLAG 0 176 v+
FLAG 816 -192 v-
FLAG 0 208 v-
FLAG 176 192 v-
FLAG 368 384 v-
FLAG 592 320 v-
FLAG 176 160 v+
FLAG 368 352 v+
FLAG 592 288 v+
FLAG 704 288 out
FLAG -80 352 0
FLAG -448 -48 0
FLAG -448 -224 S1
FLAG -304 -48 0
FLAG -304 -224 S2
FLAG -176 -48 0
FLAG -176 -224 S3
FLAG -32 -48 0
FLAG -32 -224 S4
FLAG 96 -80 0
FLAG 96 -160 S5
FLAG 368 192 S1
FLAG 368 224 S2
FLAG 368 256 S3
FLAG 368 288 S4
FLAG 368 320 S5
SYMBOL etj3 416 272 R0
SYMATTR InstName X3
SYMBOL etj4 640 288 R0
SYMATTR InstName X4
SYMBOL voltage -480 304 R0
WINDOW 123 38 63 Left 2
WINDOW 39 0 0 Left 2
WINDOW 0 38 12 Left 2
WINDOW 3 38 40 Left 2
SYMATTR Value2 AC 1
SYMATTR InstName Vin1
SYMATTR Value SINE(0 14.9m 12.7k)
SYMBOL e -240 160 R0
SYMATTR InstName E1
SYMATTR Value -0.5
SYMBOL e -240 320 R0
SYMATTR InstName E2
SYMATTR Value -0.5
SYMBOL voltage 704 -208 R0
WINDOW 123 0 0 Left 0
WINDOW 39 0 0 Left 0
SYMATTR InstName V1
SYMATTR Value 15
SYMBOL voltage 816 -208 R0
WINDOW 123 0 0 Left 0
WINDOW 39 0 0 Left 0
SYMATTR InstName V2
SYMATTR Value -15
SYMBOL voltage -80 256 R0
WINDOW 123 38 63 Left 2
WINDOW 39 0 0 Left 2
WINDOW 0 38 12 Left 2
WINDOW 3 -188 38 Left 2
SYMATTR Value2 AC 0
SYMATTR InstName Vicm1
SYMATTR Value ""
SYMBOL voltage -448 -176 R0
WINDOW 123 0 0 Left 2
WINDOW 39 0 0 Left 2
SYMATTR InstName V4
SYMATTR Value 15
SYMBOL voltage -304 -176 R0
WINDOW 123 0 0 Left 2
WINDOW 39 0 0 Left 2
SYMATTR InstName V5
SYMATTR Value -15
SYMBOL voltage -176 -176 R0
WINDOW 123 0 0 Left 2
WINDOW 39 0 0 Left 2
SYMATTR InstName V6
SYMATTR Value -15
SYMBOL voltage -32 -176 R0
WINDOW 123 0 0 Left 2
WINDOW 39 0 0 Left 2
SYMATTR InstName V7
SYMATTR Value -15
SYMBOL voltage 96 -176 R0
WINDOW 123 0 0 Left 0
WINDOW 39 0 0 Left 0
SYMATTR InstName V8
SYMATTR Value -15
SYMBOL etj1 64 160 R0
SYMATTR InstName X1
SYMBOL etj2 224 160 R0
SYMATTR InstName X2
TEXT -456 112 Left 2 !.dc Vin1 -15 15 0.01
TEXT 344 -120 Left 2 !;tran 1m
TEXT -288 40 Left 2 !;ac dec 100 1 1Meg
