Version 4
SHEET 1 1820 1108
WIRE -560 -1504 -672 -1504
WIRE -160 -1504 -480 -1504
WIRE -816 -1216 -928 -1216
WIRE -672 -1216 -672 -1504
WIRE -672 -1216 -736 -1216
WIRE -544 -1216 -672 -1216
WIRE -160 -1216 -160 -1504
WIRE -160 -1216 -464 -1216
WIRE 352 -912 352 -976
WIRE 496 -912 496 -976
WIRE 624 -912 624 -976
WIRE 768 -912 768 -976
WIRE -1040 -800 -1152 -800
WIRE -928 -800 -928 -1216
WIRE -928 -800 -960 -800
WIRE -848 -800 -928 -800
WIRE -160 -800 -160 -1216
WIRE -160 -800 -704 -800
WIRE 352 -800 352 -832
WIRE 496 -800 496 -832
WIRE 624 -800 624 -832
WIRE 768 -800 768 -832
WIRE -848 -784 -848 -800
WIRE -704 -784 -704 -800
WIRE -704 -784 -768 -784
WIRE -1264 -384 -1360 -384
WIRE -1152 -384 -1152 -800
WIRE -1152 -384 -1184 -384
WIRE -1088 -384 -1152 -384
WIRE -160 -384 -160 -800
WIRE -160 -384 -1008 -384
WIRE -1504 16 -1552 16
WIRE -1360 16 -1360 -384
WIRE -1360 16 -1424 16
WIRE -1232 16 -1360 16
WIRE -160 16 -160 -384
WIRE -160 16 -1152 16
WIRE -160 272 -160 16
WIRE -160 272 -752 272
WIRE -1680 432 -1728 432
WIRE -1552 432 -1552 16
WIRE -1552 432 -1600 432
WIRE -1264 432 -1552 432
WIRE -752 432 -752 272
WIRE -752 432 -1184 432
WIRE -160 432 -160 272
WIRE 32 432 -160 432
WIRE 32 448 32 432
WIRE 256 448 112 448
WIRE -1728 464 -1728 432
WIRE -160 560 -160 432
WIRE 32 560 -160 560
WIRE -1728 576 -1728 544
WIRE 256 576 256 448
WIRE 256 576 96 576
WIRE 32 592 0 592
WIRE -2144 640 -2240 640
WIRE -1440 640 -2144 640
WIRE -2240 736 -2240 640
WIRE -1440 752 -1440 640
WIRE 0 752 0 592
WIRE 0 752 -1440 752
WIRE -2240 848 -2240 816
FLAG -2240 848 0
FLAG 352 -800 0
FLAG 352 -976 S1
FLAG 496 -800 0
FLAG 496 -976 S2
FLAG 624 -800 0
FLAG 624 -976 S3
FLAG 768 -800 0
FLAG 768 -976 S4
FLAG -1728 576 0
FLAG -2144 640 in
FLAG 896 -832 0
FLAG 896 -912 S5
FLAG 256 576 out
FLAG 96 -832 0
FLAG 208 -832 0
FLAG 96 -912 v+
FLAG 208 -912 v-
FLAG 64 544 v+
FLAG 64 608 v-
FLAG -1248 480 0
FLAG -1200 480 S5
FLAG -528 -1168 0
FLAG -832 -736 0
FLAG -1072 -336 0
FLAG -1216 64 0
FLAG -1168 64 S4
FLAG -1024 -336 S3
FLAG -784 -736 S2
FLAG -480 -1168 S1
SYMBOL voltage 208 -928 R0
WINDOW 123 0 0 Left 2
WINDOW 39 0 0 Left 2
SYMATTR InstName V2
SYMATTR Value 15
SYMBOL res -1584 416 R90
WINDOW 0 0 56 VBottom 2
WINDOW 3 32 56 VTop 2
SYMATTR InstName R1
SYMATTR Value 2.2K
SYMBOL voltage 352 -928 R0
WINDOW 123 0 0 Left 2
WINDOW 39 0 0 Left 2
SYMATTR InstName V4
SYMATTR Value 15
SYMBOL voltage 496 -928 R0
WINDOW 123 0 0 Left 2
WINDOW 39 0 0 Left 2
SYMATTR InstName V5
SYMATTR Value -15
SYMBOL voltage 624 -928 R0
WINDOW 123 0 0 Left 2
WINDOW 39 0 0 Left 2
SYMATTR InstName V6
SYMATTR Value -15
SYMBOL voltage -2240 720 R0
WINDOW 123 24 124 Left 2
WINDOW 39 0 0 Left 2
WINDOW 3 24 44 Left 2
SYMATTR Value2 AC 1
SYMATTR Value SINE(0 14.9m 12.7k)
SYMATTR InstName Vin
SYMBOL voltage 768 -928 R0
WINDOW 123 0 0 Left 2
WINDOW 39 0 0 Left 2
SYMATTR InstName V3
SYMATTR Value -15
SYMBOL voltage -1728 448 R0
WINDOW 123 0 0 Left 0
WINDOW 39 0 0 Left 0
SYMATTR InstName V1
SYMATTR Value 0
SYMBOL res -1408 0 R90
WINDOW 0 0 56 VBottom 2
WINDOW 3 32 56 VTop 2
SYMATTR InstName R2
SYMATTR Value 680
SYMBOL res -1168 -400 R90
WINDOW 0 0 56 VBottom 2
WINDOW 3 32 56 VTop 2
SYMATTR InstName R3
SYMATTR Value 1.15k
SYMBOL res -944 -816 R90
WINDOW 0 0 56 VBottom 2
WINDOW 3 32 56 VTop 2
SYMATTR InstName R4
SYMATTR Value 1.55k
SYMBOL res -720 -1232 R90
WINDOW 0 0 56 VBottom 2
WINDOW 3 32 56 VTop 2
SYMATTR InstName R5
SYMATTR Value 2.8k
SYMBOL res -464 -1520 R90
WINDOW 0 0 56 VBottom 2
WINDOW 3 32 56 VTop 2
SYMATTR InstName R6
SYMATTR Value 666
SYMBOL voltage 896 -928 R0
WINDOW 123 0 0 Left 0
WINDOW 39 0 0 Left 0
SYMATTR InstName V7
SYMATTR Value -15
SYMBOL OpAmps\\AD744 64 512 R0
SYMATTR InstName U6
SYMBOL res 128 432 R90
WINDOW 0 0 56 VBottom 2
WINDOW 3 32 56 VTop 2
SYMATTR InstName R7
SYMATTR Value 10k
SYMBOL voltage 96 -928 R0
WINDOW 123 0 0 Left 0
WINDOW 39 0 0 Left 0
SYMATTR InstName V8
SYMATTR Value -15
SYMBOL sw -560 -1216 R270
SYMATTR InstName S1
SYMATTR Value MYSW
SYMBOL sw -864 -784 R270
SYMATTR InstName S2
SYMATTR Value MYSW
SYMBOL sw -1104 -384 R270
SYMATTR InstName S3
SYMATTR Value MYSW
SYMBOL sw -1248 16 R270
SYMATTR InstName S4
SYMATTR Value MYSW
SYMBOL sw -1280 432 R270
SYMATTR InstName S5
SYMATTR Value MYSW
TEXT 528 824 Left 2 !;ac dec 100 1 1Meg
TEXT 528 864 Left 2 !;op
TEXT 536 888 Left 2 !;dc Vin 0 15 1m
TEXT 520 568 Left 2 !.meas AC Rin FIND Rintrare() AT 1
TEXT 520 600 Left 2 !.func Rintrare() V(in)/I(Vin)
TEXT 520 640 Left 2 !.FOUR 12.7khz 10 V(OUT)
TEXT 520 672 Left 2 !.OPTIONS plotwinsize=0
TEXT 528 704 Left 2 ;To disable compression
TEXT 528 736 Left 2 !.OPTIONS numdgt=7
TEXT -2416 -792 Left 2 !.model MYSW SW(Ron=1m Roff=1Meg Vt=0.5 Vh=0))
TEXT -632 936 Left 2 !.tran 0 5m
